<?xml version="1.0" encoding="UTF-8"?>

<!-- generated on 2025-11-29 19:39:54 by Eclipse SUMO sumo Version 1.24.0
-->

<sumoConfiguration xmlns:xsi="http://www.w3.org/2001/XMLSchema-instance" xsi:noNamespaceSchemaLocation="http://sumo.dlr.de/xsd/sumoConfiguration.xsd">

    <input>
        <net-file value="Dundurn%20King%20St%20W.net.xml"/>
        <route-files value="Dundurn%20King%20St%20W.rou.xml"/>
        <additional-files value="Detectors.add.xml"/>
    </input>

</sumoConfiguration>
