<?xml version="1.0" encoding="UTF-8"?>

<!-- generated on 2025-11-29 20:04:35 by Eclipse SUMO netedit Version 1.24.0
-->

<additional xmlns:xsi="http://www.w3.org/2001/XMLSchema-instance" xsi:noNamespaceSchemaLocation="http://sumo.dlr.de/xsd/additional_file.xsd">
    <!-- Detectors -->
    <laneAreaDetector id="det_E_0" lane="E8_0" pos="62.15" length="10.00" period="300.00" file="e2_2.xml"/>
    <laneAreaDetector id="det_E_1" lane="E8_1" pos="62.37" length="10.00" period="300.00" file="e2_0.xml"/>
    <laneAreaDetector id="det_E_2" lane="E8_2" pos="62.37" length="10.00" period="300.00" file="e2_1.xml"/>
    <laneAreaDetector id="e2_10" lane="-E11_0" pos="62.45" length="10.00" period="300.00" file="e2_10.xml"/>
    <laneAreaDetector id="e2_2" lane="-E10_2" pos="76.52" length="10.00" period="300.00" file="e2_2.xml"/>
    <laneAreaDetector id="e2_3" lane="-E10_1" pos="76.11" length="10.00" period="300.00" file="e2_3.xml"/>
    <laneAreaDetector id="e2_4" lane="-E10_0" pos="76.93" length="10.00" period="300.00" file="e2_4.xml"/>
    <laneAreaDetector id="e2_5" lane="-E11_1" pos="62.10" length="10.00" period="300.00" file="e2_5.xml"/>
    <laneAreaDetector id="e2_6" lane="-E11_2" pos="62.80" length="10.00" period="300.00" file="e2_6.xml"/>
    <laneAreaDetector id="e2_7" lane="-E9_2" pos="78.12" length="10.00" period="300.00" file="e2_7.xml"/>
    <laneAreaDetector id="e2_8" lane="-E9_1" pos="78.39" length="10.00" period="300.00" file="e2_8.xml"/>
    <laneAreaDetector id="e2_9" lane="-E9_0" pos="78.66" length="10.00" period="300.00" file="e2_9.xml"/>
</additional>
