<?xml version="1.0" encoding="UTF-8"?>

<!-- generated on 2025-11-29 12:16:29 by Eclipse SUMO netedit Version 1.24.0
<neteditConfiguration xmlns:xsi="http://www.w3.org/2001/XMLSchema-instance" xsi:noNamespaceSchemaLocation="http://sumo.dlr.de/xsd/neteditConfiguration.xsd">

    <input>
        <sumocfg-file value="C:\Users\helpf\Desktop\ML_Alg\test2.sumocfg"/>
        <route-files value="C:\Users\helpf\Desktop\ML_Alg\test2.rou.xml"/>
        <sumo-net-file value="C:\Users\helpf\Desktop\ML_Alg\test2.net.xml"/>
    </input>

    <output>
        <output-file value="C:\Users\helpf\Desktop\ML_Alg\test2.net.xml"/>
    </output>

    <processing>
        <geometry.min-radius.fix.railways value="false"/>
        <geometry.avoid-overlap value="false"/>
        <geometry.max-grade.fix value="false"/>
        <offset.disable-normalization value="true"/>
        <lefthand value="0"/>
    </processing>

    <junctions>
        <no-turnarounds value="true"/>
        <junctions.corner-detail value="5"/>
        <junctions.limit-turn-speed value="5.50"/>
        <rectangular-lane-cut value="0"/>
    </junctions>

    <pedestrian>
        <walkingareas value="0"/>
    </pedestrian>

</neteditConfiguration>
-->

<net version="1.20" junctionCornerDetail="5" limitTurnSpeed="5.50" avoidOverlap="0" xmlns:xsi="http://www.w3.org/2001/XMLSchema-instance" xsi:noNamespaceSchemaLocation="http://sumo.dlr.de/xsd/net_file.xsd">

    <location netOffset="0.00,0.00" convBoundary="-300.00,-200.00,-100.00,0.00" origBoundary="-10000000000.00,-10000000000.00,10000000000.00,10000000000.00" projParameter="!"/>

    <edge id=":J3_0" function="internal">
        <lane id=":J3_0_0" index="0" speed="6.51" length="9.03" shape="-208.00,-86.40 -208.35,-88.85 -209.40,-90.60 -211.15,-91.65 -213.60,-92.00"/>
    </edge>
    <edge id=":J3_1" function="internal">
        <lane id=":J3_1_0" index="0" speed="13.89" length="27.20" shape="-208.00,-86.40 -208.00,-113.60"/>
        <lane id=":J3_1_1" index="1" speed="13.89" length="27.20" shape="-204.80,-86.40 -204.80,-113.60"/>
    </edge>
    <edge id=":J3_3" function="internal">
        <lane id=":J3_3_0" index="0" speed="10.36" length="12.07" shape="-201.60,-86.40 -200.65,-93.05 -197.90,-97.64"/>
    </edge>
    <edge id=":J3_16" function="internal">
        <lane id=":J3_16_0" index="0" speed="10.36" length="12.44" shape="-197.90,-97.64 -197.80,-97.80 -193.05,-100.65 -186.40,-101.60"/>
    </edge>
    <edge id=":J3_4" function="internal">
        <lane id=":J3_4_0" index="0" speed="6.51" length="9.03" shape="-186.40,-92.00 -188.85,-91.65 -190.60,-90.60 -191.65,-88.85 -192.00,-86.40"/>
    </edge>
    <edge id=":J3_5" function="internal">
        <lane id=":J3_5_0" index="0" speed="13.89" length="27.20" shape="-186.40,-92.00 -213.60,-92.00"/>
        <lane id=":J3_5_1" index="1" speed="13.89" length="27.20" shape="-186.40,-95.20 -213.60,-95.20"/>
    </edge>
    <edge id=":J3_7" function="internal">
        <lane id=":J3_7_0" index="0" speed="10.36" length="12.07" shape="-186.40,-98.40 -193.05,-99.35 -197.64,-102.10"/>
    </edge>
    <edge id=":J3_17" function="internal">
        <lane id=":J3_17_0" index="0" speed="10.36" length="12.44" shape="-197.64,-102.10 -197.80,-102.20 -200.65,-106.95 -201.60,-113.60"/>
    </edge>
    <edge id=":J3_8" function="internal">
        <lane id=":J3_8_0" index="0" speed="6.51" length="9.03" shape="-192.00,-113.60 -191.65,-111.15 -190.60,-109.40 -188.85,-108.35 -186.40,-108.00"/>
    </edge>
    <edge id=":J3_9" function="internal">
        <lane id=":J3_9_0" index="0" speed="13.89" length="27.20" shape="-192.00,-113.60 -192.00,-86.40"/>
        <lane id=":J3_9_1" index="1" speed="13.89" length="27.20" shape="-195.20,-113.60 -195.20,-86.40"/>
    </edge>
    <edge id=":J3_11" function="internal">
        <lane id=":J3_11_0" index="0" speed="10.36" length="12.07" shape="-198.40,-113.60 -199.35,-106.95 -202.10,-102.36"/>
    </edge>
    <edge id=":J3_18" function="internal">
        <lane id=":J3_18_0" index="0" speed="10.36" length="12.44" shape="-202.10,-102.36 -202.20,-102.20 -206.95,-99.35 -213.60,-98.40"/>
    </edge>
    <edge id=":J3_12" function="internal">
        <lane id=":J3_12_0" index="0" speed="6.51" length="9.03" shape="-213.60,-108.00 -211.15,-108.35 -209.40,-109.40 -208.35,-111.15 -208.00,-113.60"/>
    </edge>
    <edge id=":J3_13" function="internal">
        <lane id=":J3_13_0" index="0" speed="13.89" length="27.20" shape="-213.60,-108.00 -186.40,-108.00"/>
        <lane id=":J3_13_1" index="1" speed="13.89" length="27.20" shape="-213.60,-104.80 -186.40,-104.80"/>
    </edge>
    <edge id=":J3_15" function="internal">
        <lane id=":J3_15_0" index="0" speed="10.36" length="12.07" shape="-213.60,-101.60 -206.95,-100.65 -202.36,-97.90"/>
    </edge>
    <edge id=":J3_19" function="internal">
        <lane id=":J3_19_0" index="0" speed="10.36" length="12.44" shape="-202.36,-97.90 -202.20,-97.80 -199.35,-93.05 -198.40,-86.40"/>
    </edge>

    <edge id="-E10" from="J7" to="J3" priority="-1" length="100.00">
        <lane id="-E10_0" index="0" speed="13.89" length="100.00" shape="-192.00,-200.00 -192.00,-113.60"/>
        <lane id="-E10_1" index="1" speed="13.89" length="100.00" shape="-195.20,-200.00 -195.20,-113.60"/>
        <lane id="-E10_2" index="2" speed="13.89" length="100.00" shape="-198.40,-200.00 -198.40,-113.60"/>
    </edge>
    <edge id="-E11" from="J5" to="J3" priority="-1">
        <lane id="-E11_0" index="0" speed="13.89" length="86.40" shape="-100.00,-92.00 -186.40,-92.00"/>
        <lane id="-E11_1" index="1" speed="13.89" length="86.40" shape="-100.00,-95.20 -186.40,-95.20"/>
        <lane id="-E11_2" index="2" speed="13.89" length="86.40" shape="-100.00,-98.40 -186.40,-98.40"/>
    </edge>
    <edge id="-E8" from="J3" to="J8" priority="-1" length="100.00">
        <lane id="-E8_0" index="0" speed="13.89" length="100.00" shape="-213.60,-92.00 -300.00,-92.00"/>
        <lane id="-E8_1" index="1" speed="13.89" length="100.00" shape="-213.60,-95.20 -300.00,-95.20"/>
        <lane id="-E8_2" index="2" speed="13.89" length="100.00" shape="-213.60,-98.40 -300.00,-98.40"/>
    </edge>
    <edge id="-E9" from="J4" to="J3" priority="-1" length="100.00">
        <lane id="-E9_0" index="0" speed="13.89" length="100.00" shape="-208.00,0.00 -208.00,-86.40"/>
        <lane id="-E9_1" index="1" speed="13.89" length="100.00" shape="-204.80,0.00 -204.80,-86.40"/>
        <lane id="-E9_2" index="2" speed="13.89" length="100.00" shape="-201.60,0.00 -201.60,-86.40"/>
    </edge>
    <edge id="E10" from="J3" to="J7" priority="-1" length="100.00">
        <lane id="E10_0" index="0" speed="13.89" length="100.00" shape="-208.00,-113.60 -208.00,-200.00"/>
        <lane id="E10_1" index="1" speed="13.89" length="100.00" shape="-204.80,-113.60 -204.80,-200.00"/>
        <lane id="E10_2" index="2" speed="13.89" length="100.00" shape="-201.60,-113.60 -201.60,-200.00"/>
    </edge>
    <edge id="E11" from="J3" to="J5" priority="-1" length="100.00">
        <lane id="E11_0" index="0" speed="13.89" length="100.00" shape="-186.40,-108.00 -100.00,-108.00"/>
        <lane id="E11_1" index="1" speed="13.89" length="100.00" shape="-186.40,-104.80 -100.00,-104.80"/>
        <lane id="E11_2" index="2" speed="13.89" length="100.00" shape="-186.40,-101.60 -100.00,-101.60"/>
    </edge>
    <edge id="E8" from="J8" to="J3" priority="-1" length="100.00">
        <lane id="E8_0" index="0" speed="13.89" length="100.00" shape="-300.00,-108.00 -213.60,-108.00"/>
        <lane id="E8_1" index="1" speed="13.89" length="100.00" shape="-300.00,-104.80 -213.60,-104.80"/>
        <lane id="E8_2" index="2" speed="13.89" length="100.00" shape="-300.00,-101.60 -213.60,-101.60"/>
    </edge>
    <edge id="E9" from="J3" to="J4" priority="-1" length="100.00">
        <lane id="E9_0" index="0" speed="13.89" length="100.00" shape="-192.00,-86.40 -192.00,0.00"/>
        <lane id="E9_1" index="1" speed="13.89" length="100.00" shape="-195.20,-86.40 -195.20,0.00"/>
        <lane id="E9_2" index="2" speed="13.89" length="100.00" shape="-198.40,-86.40 -198.40,0.00"/>
    </edge>

    <tlLogic id="TL1" type="static" programID="0" offset="0">
        <phase duration="33" state="GGGgrrrrGGGgrrrr"/>
        <phase duration="3"  state="yyygrrrryyygrrrr"/>
        <phase duration="6"  state="rrrGrrrrrrrGrrrr"/>
        <phase duration="3"  state="rrryrrrrrrryrrrr"/>
        <phase duration="33" state="rrrrGGGgrrrrGGGg"/>
        <phase duration="3"  state="rrrryyygrrrryyyg"/>
        <phase duration="6"  state="rrrrrrrGrrrrrrrG"/>
        <phase duration="3"  state="rrrrrrryrrrrrrry"/>
    </tlLogic>

    <junction id="J3" type="traffic_light" x="-200.00" y="-100.00" incLanes="-E9_0 -E9_1 -E9_2 -E11_0 -E11_1 -E11_2 -E10_0 -E10_1 -E10_2 E8_0 E8_1 E8_2" intLanes=":J3_0_0 :J3_1_0 :J3_1_1 :J3_16_0 :J3_4_0 :J3_5_0 :J3_5_1 :J3_17_0 :J3_8_0 :J3_9_0 :J3_9_1 :J3_18_0 :J3_12_0 :J3_13_0 :J3_13_1 :J3_19_0" shape="-209.60,-86.40 -190.40,-86.40 -189.96,-88.62 -189.40,-89.40 -188.62,-89.96 -187.62,-90.29 -186.40,-90.40 -186.40,-109.60 -188.62,-110.04 -189.40,-110.60 -189.96,-111.38 -190.29,-112.38 -190.40,-113.60 -209.60,-113.60 -210.04,-111.38 -210.60,-110.60 -211.38,-110.04 -212.38,-109.71 -213.60,-109.60 -213.60,-90.40 -211.38,-89.96 -210.60,-89.40 -210.04,-88.62 -209.71,-87.62">
        <request index="0"  response="0000000000000000" foes="0000000001100000" cont="0"/>
        <request index="1"  response="1000000000000000" foes="1111100001100000" cont="0"/>
        <request index="2"  response="1000000000000000" foes="1111100001100000" cont="0"/>
        <request index="3"  response="1000011010000000" foes="1000011011100000" cont="1"/>
        <request index="4"  response="0000011000000000" foes="0000011000000000" cont="0"/>
        <request index="5"  response="0000011000001111" foes="1000011000001111" cont="0"/>
        <request index="6"  response="0000011000001111" foes="1000011000001111" cont="0"/>
        <request index="7"  response="0110111000001000" foes="0110111000001000" cont="1"/>
        <request index="8"  response="0000000000000000" foes="0110000000000000" cont="0"/>
        <request index="9"  response="0000000010000000" foes="0110000011111000" cont="0"/>
        <request index="10" response="0000000010000000" foes="0110000011111000" cont="0"/>
        <request index="11" response="1000000010000110" foes="1110000010000110" cont="1"/>
        <request index="12" response="0000000000000110" foes="0000000000000110" cont="0"/>
        <request index="13" response="0000111100000110" foes="0000111110000110" cont="0"/>
        <request index="14" response="0000111100000110" foes="0000111110000110" cont="0"/>
        <request index="15" response="0000100001101110" foes="0000100001101110" cont="1"/>
    </junction>
    <junction id="J4" type="dead_end" x="-200.00" y="0.00" incLanes="E9_0 E9_1 E9_2" intLanes="" shape="-200.00,0.00 -190.40,0.00 -200.00,0.00"/>
    <junction id="J5" type="dead_end" x="-100.00" y="-100.00" incLanes="E11_0 E11_1 E11_2" intLanes="" shape="-100.00,-100.00 -100.00,-109.60 -100.00,-100.00"/>
    <junction id="J7" type="dead_end" x="-200.00" y="-200.00" incLanes="E10_0 E10_1 E10_2" intLanes="" shape="-200.00,-200.00 -209.60,-200.00 -200.00,-200.00"/>
    <junction id="J8" type="dead_end" x="-300.00" y="-100.00" incLanes="-E8_0 -E8_1 -E8_2" intLanes="" shape="-300.00,-100.00 -300.00,-90.40 -300.00,-100.00"/>

    <junction id=":J3_16_0" type="internal" x="-197.90" y="-97.64" incLanes=":J3_3_0 -E10_0 -E10_1" intLanes=":J3_5_0 :J3_5_1 :J3_7_0 :J3_8_0 :J3_9_0 :J3_9_1 :J3_13_0 :J3_13_1 :J3_15_0"/>
    <junction id=":J3_17_0" type="internal" x="-197.64" y="-102.10" incLanes=":J3_7_0 E8_0 E8_1" intLanes=":J3_1_0 :J3_1_1 :J3_3_0 :J3_9_0 :J3_9_1 :J3_11_0 :J3_12_0 :J3_13_0 :J3_13_1"/>
    <junction id=":J3_18_0" type="internal" x="-202.10" y="-102.36" incLanes=":J3_11_0 -E9_0 -E9_1" intLanes=":J3_0_0 :J3_1_0 :J3_1_1 :J3_5_0 :J3_5_1 :J3_7_0 :J3_13_0 :J3_13_1 :J3_15_0"/>
    <junction id=":J3_19_0" type="internal" x="-202.36" y="-97.90" incLanes=":J3_15_0 -E11_0 -E11_1" intLanes=":J3_1_0 :J3_1_1 :J3_3_0 :J3_4_0 :J3_5_0 :J3_5_1 :J3_9_0 :J3_9_1 :J3_11_0"/>

    <connection from="-E10" to="E11" fromLane="0" toLane="0" via=":J3_8_0" tl="TL1" linkIndex="8" dir="r" state="O"/>
    <connection from="-E10" to="E9" fromLane="0" toLane="0" via=":J3_9_0" tl="TL1" linkIndex="9" dir="s" state="O"/>
    <connection from="-E10" to="E9" fromLane="1" toLane="1" via=":J3_9_1" tl="TL1" linkIndex="10" dir="s" state="O"/>
    <connection from="-E10" to="-E8" fromLane="2" toLane="2" via=":J3_11_0" tl="TL1" linkIndex="11" dir="l" state="o"/>
    <connection from="-E11" to="E9" fromLane="0" toLane="0" via=":J3_4_0" tl="TL1" linkIndex="4" dir="r" state="o"/>
    <connection from="-E11" to="-E8" fromLane="0" toLane="0" via=":J3_5_0" tl="TL1" linkIndex="5" dir="s" state="o"/>
    <connection from="-E11" to="-E8" fromLane="1" toLane="1" via=":J3_5_1" tl="TL1" linkIndex="6" dir="s" state="o"/>
    <connection from="-E11" to="E10" fromLane="2" toLane="2" via=":J3_7_0" tl="TL1" linkIndex="7" dir="l" state="o"/>
    <connection from="-E9" to="-E8" fromLane="0" toLane="0" via=":J3_0_0" tl="TL1" linkIndex="0" dir="r" state="O"/>
    <connection from="-E9" to="E10" fromLane="0" toLane="0" via=":J3_1_0" tl="TL1" linkIndex="1" dir="s" state="O"/>
    <connection from="-E9" to="E10" fromLane="1" toLane="1" via=":J3_1_1" tl="TL1" linkIndex="2" dir="s" state="O"/>
    <connection from="-E9" to="E11" fromLane="2" toLane="2" via=":J3_3_0" tl="TL1" linkIndex="3" dir="l" state="o"/>
    <connection from="E8" to="E10" fromLane="0" toLane="0" via=":J3_12_0" tl="TL1" linkIndex="12" dir="r" state="o"/>
    <connection from="E8" to="E11" fromLane="0" toLane="0" via=":J3_13_0" tl="TL1" linkIndex="13" dir="s" state="o"/>
    <connection from="E8" to="E11" fromLane="1" toLane="1" via=":J3_13_1" tl="TL1" linkIndex="14" dir="s" state="o"/>
    <connection from="E8" to="E9" fromLane="2" toLane="2" via=":J3_15_0" tl="TL1" linkIndex="15" dir="l" state="o"/>

    <connection from=":J3_0" to="-E8" fromLane="0" toLane="0" dir="r" state="M"/>
    <connection from=":J3_1" to="E10" fromLane="0" toLane="0" dir="s" state="M"/>
    <connection from=":J3_1" to="E10" fromLane="1" toLane="1" dir="s" state="M"/>
    <connection from=":J3_3" to="E11" fromLane="0" toLane="2" via=":J3_16_0" dir="l" state="m"/>
    <connection from=":J3_16" to="E11" fromLane="0" toLane="2" dir="l" state="M"/>
    <connection from=":J3_4" to="E9" fromLane="0" toLane="0" dir="r" state="M"/>
    <connection from=":J3_5" to="-E8" fromLane="0" toLane="0" dir="s" state="M"/>
    <connection from=":J3_5" to="-E8" fromLane="1" toLane="1" dir="s" state="M"/>
    <connection from=":J3_7" to="E10" fromLane="0" toLane="2" via=":J3_17_0" dir="l" state="m"/>
    <connection from=":J3_17" to="E10" fromLane="0" toLane="2" dir="l" state="M"/>
    <connection from=":J3_8" to="E11" fromLane="0" toLane="0" dir="r" state="M"/>
    <connection from=":J3_9" to="E9" fromLane="0" toLane="0" dir="s" state="M"/>
    <connection from=":J3_9" to="E9" fromLane="1" toLane="1" dir="s" state="M"/>
    <connection from=":J3_11" to="-E8" fromLane="0" toLane="2" via=":J3_18_0" dir="l" state="m"/>
    <connection from=":J3_18" to="-E8" fromLane="0" toLane="2" dir="l" state="M"/>
    <connection from=":J3_12" to="E10" fromLane="0" toLane="0" dir="r" state="M"/>
    <connection from=":J3_13" to="E11" fromLane="0" toLane="0" dir="s" state="M"/>
    <connection from=":J3_13" to="E11" fromLane="1" toLane="1" dir="s" state="M"/>
    <connection from=":J3_15" to="E9" fromLane="0" toLane="2" via=":J3_19_0" dir="l" state="m"/>
    <connection from=":J3_19" to="E9" fromLane="0" toLane="2" dir="l" state="M"/>

</net>
